#
#       S/370 ih Sample Configuration
#

# Copyright (C) 2012 Harold Grovesteen
#
# This file is part of SATK.
#
#     SATK is free software: you can redistribute it and/or modify
#     it under the terms of the GNU General Public License as published by
#     the Free Software Foundation, either version 3 of the License, or
#     (at your option) any later version.
#
#     SATK is distributed in the hope that it will be useful,
#     but WITHOUT ANY WARRANTY; without even the implied warranty of
#     MERCHANTABILITY or FITNESS FOR A PARTICULAR PURPOSE.  See the
#     GNU General Public License for more details.
#
#     You should have received a copy of the GNU General Public License
#     along with SATK.  If not, see <http://www.gnu.org/licenses/>.

#------------------------------------------------------------------------------
#       CPU Configuration
#------------------------------------------------------------------------------

  CPUSERIAL 002623              # CPU serial number
  CPUMODEL  3090                # CPU model number
  CPUVERID  FD                  # CPU Version Identification
  MAINSIZE  2                   # Main storage size in megabytes
  XPNDSIZE  0                   # Expanded storage size in megabytes
  NUMCPU    1                   # Number of CPUs
# NUMVEC    1                   # Number of Vector Processors
  ARCHMODE  S/370               # Architecture mode S/370, ESA/390 or 
#                               # z/Arch=ESAME
  ECPSVM    NO                  # VM Assist : NO or Level (20 recommended)

#------------------------------------------------------------------------------
#       OS Tailoring
#------------------------------------------------------------------------------

# LOADPARM  0120....            # IPL parameter
  SYSEPOCH  1900                # Base year for initial TOD clock
# TZOFFSET  0                   # Using UTC (GMT)


#------------------------------------------------------------------------------
#       Hercules Service Processor and Hercules Application Window
#------------------------------------------------------------------------------


# MODPATH   ~/hercules/lib/hercules     # Where to search for modules
# LDMOD     dyninst tcpip               # Modules to be loaded

#------------------------------------------------------------------------------
#       Hercules Service Processor and Hercules Application Window
#------------------------------------------------------------------------------

  CODEPAGE  default                     # CodePage conversion table
  DIAG8CMD  enable noecho               # Enable without superfluous output

  PANRATE   FAST                        # Panel refresh rate


#-------------------------------------------------------------------------------
#       Advanced Hercules Performance Tailoring
#
#       +----------------------------------------------------------------+
#       | Caution:  Modification of these parameters may adversely       |
#       |           affect the performance of the host system            |
#       |           and/or Hercules.                                     |
#       +----------------------------------------------------------------+
#-------------------------------------------------------------------------------

# HERCPRIO    0                 # Hercules process runs at Normal priority
# CPUPRIO    15                 # CPU thread(s) run at Low priority
# DEVPRIO     8                 # Device thread(s) run at Below Normal priority
# TODPRIO   -20                 # TOD Clock and timer thread are Time Critical


#-------------------------------------------------------------------------------
#       Integrated Hercules I/O Controller
#-------------------------------------------------------------------------------

# DEVTMAX      0                # Device threads, 8 on Windows, else unlimited
# CNSLPORT  3270                # TCP port number to which consoles connect
                                # this instance of Hercules (inactive)

#   .-----------------------Device number
#   |     .-----------------Device type
#   |     |       .---------File name and parameters
#   |     |       |
#   V     V       V
# ----    ----    --------------------
  001F    3215-C
  0200    3310    /home/harold/SATK/samples/ihandlers/s370/ih.3310


